.. _`apdx:thermo_psivar`:


THERMO
======

.. hlist::
   :columns: 1

   * :psivar:`ENTHALPY`

   * :psivar:`ENTHALPY CORRECTION`

   * :psivar:`GIBBS FREE ENERGY`

   * :psivar:`GIBBS FREE ENERGY CORRECTION`

   * :psivar:`THERMAL ENERGY`

   * :psivar:`THERMAL ENERGY CORRECTION`

   * :psivar:`ZERO K ENTHALPY`

   * :psivar:`ZPVE`


